LH
SIPDIS
Embassy Vilnius
GOL
LITHUANIA
UNCLAS
MFA
CLOUD
Lithuania
HT8
Vilnius
USG
End Summary
PREL
Rebecca Dunham
PGOV
EU
SIPDIS FOR
PINR
Egypt
IZ
ICI
ETRD
USE
HT26
SBU
CDA
EUN
Lithuanian
Europe
UN
Comment
HT16
HT11
EFIN
Ambassador
ECON
Kirkilas
Liberal Movement
Election
DEFENSE
United Kingdom
Liberal Democrats
Paslauskas
Geneva
Europe Division
HAVANA
Lithuanian Energy
GOR
KNNP
Liberal Democrat Evaldas Lementauskas
Liberal Democratic Party
Castro
MNUC
IR
Paksas
Irena Skardziuviene
AeroDynamix
NATIONAL
ESTABLISH
EAP
Germany
KGB
